* NGSPICE file created from heichips25_tiny_wrapper.ext - technology: ihp-sg13g2

* Black-box entry subcircuit for sg13g2_fill_2 abstract view
.subckt sg13g2_fill_2 VDD VSS
.ends

* Black-box entry subcircuit for sg13g2_decap_8 abstract view
.subckt sg13g2_decap_8 VDD VSS
.ends

* Black-box entry subcircuit for sg13g2_a21oi_1 abstract view
.subckt sg13g2_a21oi_1 VSS VDD A1 A2 Y B1
.ends

* Black-box entry subcircuit for sg13g2_decap_4 abstract view
.subckt sg13g2_decap_4 VDD VSS
.ends

* Black-box entry subcircuit for sg13g2_fill_1 abstract view
.subckt sg13g2_fill_1 VDD VSS
.ends

* Black-box entry subcircuit for sg13g2_inv_2 abstract view
.subckt sg13g2_inv_2 Y A VDD VSS
.ends

* Black-box entry subcircuit for sg13g2_o21ai_1 abstract view
.subckt sg13g2_o21ai_1 B1 VDD Y VSS A1 A2
.ends

* Black-box entry subcircuit for sg13g2_dlygate4sd3_1 abstract view
.subckt sg13g2_dlygate4sd3_1 A VDD VSS X
.ends

* Black-box entry subcircuit for sg13g2_buf_8 abstract view
.subckt sg13g2_buf_8 A X VDD VSS
.ends

* Black-box entry subcircuit for sg13g2_tiehi abstract view
.subckt sg13g2_tiehi VDD VSS L_HI
.ends

* Black-box entry subcircuit for sg13g2_nand2_1 abstract view
.subckt sg13g2_nand2_1 Y A B VDD VSS
.ends

* Black-box entry subcircuit for sg13g2_dfrbpq_1 abstract view
.subckt sg13g2_dfrbpq_1 RESET_B VSS VDD D Q CLK
.ends

* Black-box entry subcircuit for sg13g2_nor3_1 abstract view
.subckt sg13g2_nor3_1 A B C Y VDD VSS
.ends

* Black-box entry subcircuit for sg13g2_xnor2_1 abstract view
.subckt sg13g2_xnor2_1 Y A B VDD VSS
.ends

* Black-box entry subcircuit for sg13g2_nor2_1 abstract view
.subckt sg13g2_nor2_1 A B Y VDD VSS
.ends

* Black-box entry subcircuit for sg13g2_nor2b_1 abstract view
.subckt sg13g2_nor2b_1 A B_N Y VDD VSS
.ends

* Black-box entry subcircuit for sg13g2_and2_1 abstract view
.subckt sg13g2_and2_1 A B X VDD VSS
.ends

* Black-box entry subcircuit for sg13g2_nand2b_1 abstract view
.subckt sg13g2_nand2b_1 Y B A_N VDD VSS
.ends

* Black-box entry subcircuit for sg13g2_and3_1 abstract view
.subckt sg13g2_and3_1 X A B C VDD VSS
.ends

* Black-box entry subcircuit for sg13g2_a21o_1 abstract view
.subckt sg13g2_a21o_1 A2 A1 B1 X VDD VSS
.ends

* Black-box entry subcircuit for sg13g2_dfrbpq_2 abstract view
.subckt sg13g2_dfrbpq_2 RESET_B VSS VDD D Q CLK
.ends

* Black-box entry subcircuit for sg13g2_nor2_2 abstract view
.subckt sg13g2_nor2_2 A B Y VDD VSS
.ends

* Black-box entry subcircuit for sg13g2_xor2_1 abstract view
.subckt sg13g2_xor2_1 B A X VDD VSS
.ends

* Black-box entry subcircuit for sg13g2_mux2_1 abstract view
.subckt sg13g2_mux2_1 A0 A1 S X VDD VSS
.ends

* Black-box entry subcircuit for sg13g2_or3_1 abstract view
.subckt sg13g2_or3_1 A B C X VDD VSS
.ends

* Black-box entry subcircuit for sg13g2_a22oi_1 abstract view
.subckt sg13g2_a22oi_1 Y B1 B2 A2 A1 VDD VSS
.ends

* Black-box entry subcircuit for sg13g2_inv_1 abstract view
.subckt sg13g2_inv_1 VDD Y A VSS
.ends

* Black-box entry subcircuit for sg13g2_nand3_1 abstract view
.subckt sg13g2_nand3_1 B C A Y VDD VSS
.ends

* Black-box entry subcircuit for sg13g2_a21oi_2 abstract view
.subckt sg13g2_a21oi_2 VSS VDD B1 Y A2 A1
.ends

* Black-box entry subcircuit for sg13g2_nand3b_1 abstract view
.subckt sg13g2_nand3b_1 B C Y VDD VSS A_N
.ends

* Black-box entry subcircuit for sg13g2_buf_1 abstract view
.subckt sg13g2_buf_1 A X VDD VSS
.ends

* Black-box entry subcircuit for sg13g2_buf_2 abstract view
.subckt sg13g2_buf_2 A X VDD VSS
.ends

* Black-box entry subcircuit for sg13g2_nand2_2 abstract view
.subckt sg13g2_nand2_2 Y A B VDD VSS
.ends

* Black-box entry subcircuit for sg13g2_nor2b_2 abstract view
.subckt sg13g2_nor2b_2 A B_N Y VDD VSS
.ends

* Black-box entry subcircuit for sg13g2_a221oi_1 abstract view
.subckt sg13g2_a221oi_1 VDD VSS B2 C1 B1 A1 Y A2
.ends

* Black-box entry subcircuit for sg13g2_and4_1 abstract view
.subckt sg13g2_and4_1 A B C D X VDD VSS
.ends

* Black-box entry subcircuit for sg13g2_or2_1 abstract view
.subckt sg13g2_or2_1 VSS VDD X B A
.ends

* Black-box entry subcircuit for sg13g2_inv_4 abstract view
.subckt sg13g2_inv_4 A Y VDD VSS
.ends

* Black-box entry subcircuit for sg13g2_nor4_1 abstract view
.subckt sg13g2_nor4_1 A B C D Y VDD VSS
.ends

* Black-box entry subcircuit for sg13g2_nand2b_2 abstract view
.subckt sg13g2_nand2b_2 Y B VDD VSS A_N
.ends

* Black-box entry subcircuit for sg13g2_nand4_1 abstract view
.subckt sg13g2_nand4_1 B C A Y VDD VSS D
.ends

* Black-box entry subcircuit for sg13g2_a21o_2 abstract view
.subckt sg13g2_a21o_2 A2 A1 B1 X VDD VSS
.ends

* Black-box entry subcircuit for sg13g2_and3_2 abstract view
.subckt sg13g2_and3_2 X A B C VDD VSS
.ends

* Black-box entry subcircuit for sg13g2_inv_8 abstract view
.subckt sg13g2_inv_8 Y A VDD VSS
.ends

* Black-box entry subcircuit for sg13g2_nor3_2 abstract view
.subckt sg13g2_nor3_2 A B C Y VDD VSS
.ends

* Black-box entry subcircuit for sg13g2_or4_1 abstract view
.subckt sg13g2_or4_1 A B C D X VDD VSS
.ends

* Black-box entry subcircuit for sg13g2_tielo abstract view
.subckt sg13g2_tielo VDD VSS L_LO
.ends

.subckt heichips25_tiny_wrapper VGND VPWR clk ena rst_n ui_in[0] ui_in[1] ui_in[2]
+ ui_in[3] ui_in[4] ui_in[5] ui_in[6] ui_in[7] uio_in[0] uio_in[1] uio_in[2] uio_in[3]
+ uio_in[4] uio_in[5] uio_in[6] uio_in[7] uio_oe[0] uio_oe[1] uio_oe[2] uio_oe[3]
+ uio_oe[4] uio_oe[5] uio_oe[6] uio_oe[7] uio_out[0] uio_out[1] uio_out[2] uio_out[3]
+ uio_out[4] uio_out[5] uio_out[6] uio_out[7] uo_out[0] uo_out[1] uo_out[2] uo_out[3]
+ uo_out[4] uo_out[5] uo_out[6] uo_out[7]
XFILLER_39_244 VPWR VGND sg13g2_fill_2
XFILLER_39_222 VPWR VGND sg13g2_decap_8
X_3155_ VGND VPWR net801 _0380_ _0021_ _0381_ sg13g2_a21oi_1
X_3086_ VGND VPWR net800 _2435_ _0003_ _2436_ sg13g2_a21oi_1
XFILLER_36_962 VPWR VGND sg13g2_decap_8
XFILLER_23_601 VPWR VGND sg13g2_fill_2
XFILLER_23_623 VPWR VGND sg13g2_fill_2
XFILLER_23_634 VPWR VGND sg13g2_decap_4
XFILLER_23_667 VPWR VGND sg13g2_fill_1
X_3988_ VGND VPWR net378 _1022_ _0212_ _1023_ sg13g2_a21oi_1
X_2939_ _2293_ net467 VPWR VGND sg13g2_inv_2
X_4609_ _1554_ VPWR _1558_ VGND _1555_ _1556_ sg13g2_o21ai_1
Xhold362 _2437_ VPWR VGND net1014 sg13g2_dlygate4sd3_1
Xhold340 falu_i.falutop.i2c_inst.data_in\[3\] VPWR VGND net992 sg13g2_dlygate4sd3_1
Xhold351 ppwm_i.u_ppwm.global_counter\[2\] VPWR VGND net1003 sg13g2_dlygate4sd3_1
Xhold373 _0043_ VPWR VGND net1025 sg13g2_dlygate4sd3_1
Xhold384 _0308_ VPWR VGND net1036 sg13g2_dlygate4sd3_1
Xhold395 falu_i.falutop.i2c_inst.result\[2\] VPWR VGND net1047 sg13g2_dlygate4sd3_1
Xfanout820 net823 net820 VPWR VGND sg13g2_buf_8
Xfanout842 rst_n net842 VPWR VGND sg13g2_buf_8
Xfanout831 net832 net831 VPWR VGND sg13g2_buf_8
XFILLER_46_748 VPWR VGND sg13g2_fill_1
XFILLER_45_269 VPWR VGND sg13g2_fill_1
XFILLER_27_973 VPWR VGND sg13g2_decap_8
XFILLER_13_100 VPWR VGND sg13g2_fill_2
XFILLER_41_431 VPWR VGND sg13g2_fill_1
XFILLER_41_420 VPWR VGND sg13g2_fill_2
XFILLER_26_85 VPWR VGND sg13g2_fill_2
XFILLER_26_494 VPWR VGND sg13g2_decap_4
XFILLER_42_987 VPWR VGND sg13g2_decap_8
XFILLER_9_126 VPWR VGND sg13g2_decap_8
XFILLER_13_188 VPWR VGND sg13g2_fill_2
XFILLER_10_873 VPWR VGND sg13g2_decap_8
XFILLER_6_899 VPWR VGND sg13g2_decap_8
X_5349__354 VPWR VGND net354 sg13g2_tiehi
XFILLER_49_553 VPWR VGND sg13g2_decap_8
XFILLER_37_748 VPWR VGND sg13g2_fill_1
XFILLER_36_269 VPWR VGND sg13g2_decap_8
X_4960_ _1903_ net718 _1803_ VPWR VGND sg13g2_nand2_1
XFILLER_18_984 VPWR VGND sg13g2_decap_8
X_3911_ net839 VPWR _0984_ VGND net404 net649 sg13g2_o21ai_1
X_4891_ _1835_ VPWR _1836_ VGND net744 net563 sg13g2_o21ai_1
X_3842_ VGND VPWR _2207_ net641 _0140_ _0949_ sg13g2_a21oi_1
X_5512_ net237 VGND VPWR net543 falu_i.falutop.div_inst.val\[7\] clknet_leaf_41_clk
+ sg13g2_dfrbpq_1
X_3773_ net827 VPWR _0915_ VGND net483 net654 sg13g2_o21ai_1
X_5443_ net118 VGND VPWR net393 ppwm_i.u_ppwm.u_mem.memory\[102\] clknet_leaf_31_clk
+ sg13g2_dfrbpq_1
X_5374_ net304 VGND VPWR net548 ppwm_i.u_ppwm.u_mem.memory\[33\] clknet_leaf_23_clk
+ sg13g2_dfrbpq_1
X_4325_ _1274_ _1276_ _1277_ _1278_ VPWR VGND sg13g2_nor3_1
X_4256_ _1211_ VPWR _0292_ VGND _1098_ _1175_ sg13g2_o21ai_1
X_3207_ _2275_ _0407_ _0411_ _0415_ VPWR VGND sg13g2_nor3_1
X_4187_ _1161_ _1119_ _1120_ VPWR VGND sg13g2_xnor2_1
X_3138_ _2439_ net1007 _0370_ VPWR VGND sg13g2_nor2_1
XFILLER_27_247 VPWR VGND sg13g2_fill_2
XFILLER_24_921 VPWR VGND sg13g2_decap_8
X_3069_ _2422_ _2421_ _2423_ VPWR VGND sg13g2_nor2b_1
XFILLER_24_998 VPWR VGND sg13g2_decap_8
XFILLER_3_803 VPWR VGND sg13g2_decap_4
XFILLER_3_847 VPWR VGND sg13g2_decap_8
XFILLER_2_313 VPWR VGND sg13g2_fill_2
Xhold170 falu_i.falutop.div_inst.quo\[6\] VPWR VGND net542 sg13g2_dlygate4sd3_1
Xhold181 ppwm_i.u_ppwm.global_counter\[8\] VPWR VGND net553 sg13g2_dlygate4sd3_1
Xhold192 ppwm_i.u_ppwm.u_mem.memory\[23\] VPWR VGND net844 sg13g2_dlygate4sd3_1
Xfanout650 net651 net650 VPWR VGND sg13g2_buf_8
Xfanout683 _0386_ net683 VPWR VGND sg13g2_buf_8
Xfanout672 net675 net672 VPWR VGND sg13g2_buf_8
Xfanout661 net663 net661 VPWR VGND sg13g2_buf_8
Xfanout694 net695 net694 VPWR VGND sg13g2_buf_8
XFILLER_18_203 VPWR VGND sg13g2_decap_4
XFILLER_19_737 VPWR VGND sg13g2_decap_8
XFILLER_15_910 VPWR VGND sg13g2_decap_8
XFILLER_42_740 VPWR VGND sg13g2_fill_1
XFILLER_27_792 VPWR VGND sg13g2_fill_2
XFILLER_42_751 VPWR VGND sg13g2_fill_2
XFILLER_15_987 VPWR VGND sg13g2_decap_8
XFILLER_18_1026 VPWR VGND sg13g2_fill_2
XFILLER_41_283 VPWR VGND sg13g2_fill_1
XFILLER_30_979 VPWR VGND sg13g2_decap_8
XFILLER_10_681 VPWR VGND sg13g2_decap_8
XFILLER_6_641 VPWR VGND sg13g2_decap_8
XFILLER_6_696 VPWR VGND sg13g2_fill_1
XFILLER_5_162 VPWR VGND sg13g2_fill_2
X_5090_ _2024_ _2029_ _2030_ VPWR VGND sg13g2_and2_1
X_4110_ falu_i.falutop.div_inst.b1\[5\] falu_i.falutop.div_inst.acc\[5\] _1112_ VPWR
+ VGND sg13g2_nor2b_1
X_5503__269 VPWR VGND net269 sg13g2_tiehi
X_4041_ _1065_ _1059_ _1053_ VPWR VGND sg13g2_nand2b_1
XFILLER_37_556 VPWR VGND sg13g2_fill_2
XFILLER_25_707 VPWR VGND sg13g2_decap_8
X_4943_ VGND VPWR net775 falu_i.falutop.div_inst.rem\[0\] _1887_ falu_i.falutop.div_inst.rem\[1\]
+ sg13g2_a21oi_1
X_4874_ _1819_ _1800_ _1817_ _1818_ VPWR VGND sg13g2_and3_1
XFILLER_21_924 VPWR VGND sg13g2_decap_8
X_3825_ net826 VPWR _0941_ VGND net534 net658 sg13g2_o21ai_1
X_3756_ net807 net375 _0098_ VPWR VGND sg13g2_and2_1
X_3687_ _0840_ _0838_ _0839_ _0849_ VPWR VGND sg13g2_a21o_1
X_5426_ net188 VGND VPWR net511 ppwm_i.u_ppwm.u_mem.memory\[85\] clknet_leaf_29_clk
+ sg13g2_dfrbpq_1
XFILLER_0_806 VPWR VGND sg13g2_decap_8
X_5357_ net338 VGND VPWR net448 ppwm_i.u_ppwm.u_mem.memory\[16\] clknet_leaf_34_clk
+ sg13g2_dfrbpq_1
X_5288_ net121 VGND VPWR net1147 ppwm_i.u_ppwm.global_counter\[5\] clknet_leaf_13_clk
+ sg13g2_dfrbpq_2
X_4308_ _1259_ _1260_ _1261_ VPWR VGND sg13g2_nor2_2
X_4239_ net542 net605 _1202_ VPWR VGND sg13g2_nor2_1
XFILLER_15_206 VPWR VGND sg13g2_fill_2
XFILLER_28_578 VPWR VGND sg13g2_fill_1
XFILLER_12_902 VPWR VGND sg13g2_decap_8
XFILLER_23_272 VPWR VGND sg13g2_fill_2
XFILLER_24_795 VPWR VGND sg13g2_decap_8
XFILLER_12_979 VPWR VGND sg13g2_decap_8
XFILLER_48_1019 VPWR VGND sg13g2_decap_8
X_5268__160 VPWR VGND net160 sg13g2_tiehi
XFILLER_2_176 VPWR VGND sg13g2_fill_2
XFILLER_19_534 VPWR VGND sg13g2_decap_8
XFILLER_19_556 VPWR VGND sg13g2_decap_4
XFILLER_46_364 VPWR VGND sg13g2_fill_2
XFILLER_34_504 VPWR VGND sg13g2_fill_1
XFILLER_14_283 VPWR VGND sg13g2_decap_4
XFILLER_15_784 VPWR VGND sg13g2_fill_2
XFILLER_30_721 VPWR VGND sg13g2_fill_2
X_3610_ net572 _0774_ _0778_ _0779_ VPWR VGND sg13g2_nor3_1
X_4590_ _1538_ _1537_ _1539_ VPWR VGND sg13g2_xor2_1
X_3541_ _0618_ _0711_ _0712_ _0713_ VPWR VGND sg13g2_nor3_1
XFILLER_7_972 VPWR VGND sg13g2_decap_8
X_3472_ _0646_ VPWR _0647_ VGND _2247_ net596 sg13g2_o21ai_1
X_5211_ VGND VPWR net623 _2124_ _0334_ _2123_ sg13g2_a21oi_1
X_5142_ _2078_ _2079_ _2077_ _2080_ VPWR VGND sg13g2_mux2_1
XFILLER_29_0 VPWR VGND sg13g2_fill_2
X_5073_ _1973_ net773 falu_i.falutop.div_inst.rem\[4\] _2014_ VPWR VGND sg13g2_a21o_1
X_4024_ _1051_ net2 _1050_ VPWR VGND sg13g2_nand2_1
XFILLER_25_559 VPWR VGND sg13g2_fill_2
XFILLER_40_518 VPWR VGND sg13g2_fill_2
XFILLER_12_209 VPWR VGND sg13g2_fill_2
X_4926_ _1851_ _1867_ _1869_ _1870_ VPWR VGND sg13g2_or3_1
X_4857_ _1802_ net752 net727 net768 net712 VPWR VGND sg13g2_a22oi_1
XFILLER_20_264 VPWR VGND sg13g2_fill_1
XFILLER_21_798 VPWR VGND sg13g2_decap_8
X_3808_ VGND VPWR _2218_ net661 _0123_ _0932_ sg13g2_a21oi_1
XFILLER_5_909 VPWR VGND sg13g2_decap_8
X_4788_ _1733_ VPWR _1734_ VGND _1240_ _1314_ sg13g2_o21ai_1
X_3739_ _0887_ _0885_ _0894_ _0896_ VPWR VGND sg13g2_a21o_1
XFILLER_4_419 VPWR VGND sg13g2_decap_8
X_5409_ net234 VGND VPWR _0168_ ppwm_i.u_ppwm.u_mem.memory\[68\] clknet_leaf_27_clk
+ sg13g2_dfrbpq_1
XFILLER_0_658 VPWR VGND sg13g2_decap_8
XFILLER_47_106 VPWR VGND sg13g2_decap_8
X_5380__292 VPWR VGND net292 sg13g2_tiehi
XFILLER_28_386 VPWR VGND sg13g2_decap_8
XFILLER_28_397 VPWR VGND sg13g2_fill_2
XFILLER_43_367 VPWR VGND sg13g2_decap_4
XFILLER_8_703 VPWR VGND sg13g2_fill_1
XFILLER_12_743 VPWR VGND sg13g2_fill_2
XFILLER_4_964 VPWR VGND sg13g2_decap_8
XFILLER_3_496 VPWR VGND sg13g2_fill_1
X_5304__95 VPWR VGND net95 sg13g2_tiehi
XFILLER_19_320 VPWR VGND sg13g2_decap_8
XFILLER_19_342 VPWR VGND sg13g2_decap_4
XFILLER_19_353 VPWR VGND sg13g2_fill_1
XFILLER_34_367 VPWR VGND sg13g2_fill_1
XFILLER_35_879 VPWR VGND sg13g2_decap_8
X_2972_ _2325_ VPWR _2326_ VGND ppwm_i.u_ppwm.u_mem.memory\[36\] _2313_ sg13g2_o21ai_1
X_4711_ _1656_ _1651_ _1658_ VPWR VGND sg13g2_xor2_1
X_4642_ net640 _1589_ _1590_ VPWR VGND sg13g2_nor2_2
X_4573_ _1458_ _1522_ _1523_ VPWR VGND sg13g2_and2_1
X_3524_ _0696_ VPWR _0697_ VGND net584 _0633_ sg13g2_o21ai_1
X_3455_ VPWR _0631_ _0630_ VGND sg13g2_inv_1
X_3386_ ppwm_i.u_ppwm.global_counter\[8\] net782 _0564_ VPWR VGND sg13g2_xor2_1
X_5125_ VGND VPWR _2019_ _2035_ _2064_ _2034_ sg13g2_a21oi_1
X_5056_ _1997_ _1992_ _1995_ VPWR VGND sg13g2_xnor2_1
X_4007_ ppwm_i.u_ppwm.u_mem.bit_count\[4\] ppwm_i.u_ppwm.u_mem.bit_count\[3\] ppwm_i.u_ppwm.u_mem.bit_count\[5\]
+ _1038_ VPWR VGND sg13g2_nand3_1
XFILLER_40_315 VPWR VGND sg13g2_decap_4
X_4909_ _1853_ net727 net751 VPWR VGND sg13g2_nand2_1
X_5289__119 VPWR VGND net119 sg13g2_tiehi
XFILLER_5_717 VPWR VGND sg13g2_fill_2
XFILLER_5_706 VPWR VGND sg13g2_decap_8
XFILLER_1_945 VPWR VGND sg13g2_decap_8
Xhold41 falu_i.falutop.div_inst.b\[1\] VPWR VGND net413 sg13g2_dlygate4sd3_1
Xhold30 ppwm_i.u_ppwm.u_mem.memory\[24\] VPWR VGND net402 sg13g2_dlygate4sd3_1
Xhold52 ppwm_i.u_ppwm.u_mem.memory\[37\] VPWR VGND net424 sg13g2_dlygate4sd3_1
Xhold63 falu_i.falutop.div_inst.quo\[3\] VPWR VGND net435 sg13g2_dlygate4sd3_1
Xhold74 _0206_ VPWR VGND net446 sg13g2_dlygate4sd3_1
Xhold85 ppwm_i.u_ppwm.u_pwm.cmp_value\[3\] VPWR VGND net457 sg13g2_dlygate4sd3_1
XFILLER_17_813 VPWR VGND sg13g2_decap_8
XFILLER_21_1022 VPWR VGND sg13g2_decap_8
Xhold96 _0094_ VPWR VGND net468 sg13g2_dlygate4sd3_1
XFILLER_16_312 VPWR VGND sg13g2_fill_2
XFILLER_43_142 VPWR VGND sg13g2_fill_1
XFILLER_16_378 VPWR VGND sg13g2_fill_2
XFILLER_25_890 VPWR VGND sg13g2_decap_8
XFILLER_31_337 VPWR VGND sg13g2_fill_1
XFILLER_8_522 VPWR VGND sg13g2_decap_8
XFILLER_8_533 VPWR VGND sg13g2_fill_2
XFILLER_8_566 VPWR VGND sg13g2_fill_1
X_3240_ _0435_ net1185 _0051_ VPWR VGND sg13g2_nor2b_1
X_3171_ net810 VPWR _0391_ VGND ppwm_i.u_ppwm.pwm_value\[4\] net683 sg13g2_o21ai_1
XFILLER_20_4 VPWR VGND sg13g2_decap_8
XFILLER_39_437 VPWR VGND sg13g2_fill_2
XFILLER_47_481 VPWR VGND sg13g2_decap_8
X_5359__334 VPWR VGND net334 sg13g2_tiehi
XFILLER_23_849 VPWR VGND sg13g2_decap_8
X_2955_ net792 net793 _2309_ VPWR VGND sg13g2_nor2_1
X_2886_ _2240_ ppwm_i.u_ppwm.u_ex.reg_value_q\[3\] VPWR VGND sg13g2_inv_2
X_4625_ _1074_ VPWR _1574_ VGND _1238_ _1325_ sg13g2_o21ai_1
Xhold511 _0481_ VPWR VGND net1163 sg13g2_dlygate4sd3_1
X_4556_ _1228_ VPWR _1506_ VGND _1230_ _1427_ sg13g2_o21ai_1
Xhold500 ppwm_i.u_ppwm.u_mem.bit_count\[1\] VPWR VGND net1152 sg13g2_dlygate4sd3_1
Xhold533 _0436_ VPWR VGND net1185 sg13g2_dlygate4sd3_1
Xhold522 ppwm_i.u_ppwm.u_ex.reg_value_q\[5\] VPWR VGND net1174 sg13g2_dlygate4sd3_1
Xhold544 ppwm_i.u_ppwm.pwm_value\[1\] VPWR VGND net1196 sg13g2_dlygate4sd3_1
X_3507_ _2272_ net594 _0681_ VPWR VGND sg13g2_nor2_1
X_4487_ VGND VPWR _1291_ _1340_ _1438_ _1337_ sg13g2_a21oi_1
XFILLER_44_1000 VPWR VGND sg13g2_decap_8
X_3438_ VGND VPWR _2255_ _0614_ _0613_ _0611_ sg13g2_a21oi_2
X_3369_ _0546_ VPWR _0547_ VGND _2243_ ppwm_i.u_ppwm.global_counter\[9\] sg13g2_o21ai_1
X_5108_ falu_i.falutop.div_inst.rem\[5\] _2014_ net773 _2048_ VPWR VGND sg13g2_nand3_1
X_5039_ _1788_ _1828_ _1980_ VPWR VGND _1979_ sg13g2_nand3b_1
XFILLER_40_101 VPWR VGND sg13g2_fill_1
XFILLER_14_838 VPWR VGND sg13g2_decap_8
XFILLER_15_32 VPWR VGND sg13g2_decap_4
XFILLER_40_156 VPWR VGND sg13g2_fill_1
XFILLER_31_53 VPWR VGND sg13g2_fill_2
XFILLER_31_75 VPWR VGND sg13g2_fill_1
XFILLER_5_569 VPWR VGND sg13g2_fill_2
Xoutput7 net7 uo_out[4] VPWR VGND sg13g2_buf_1
XFILLER_45_985 VPWR VGND sg13g2_decap_8
XFILLER_44_473 VPWR VGND sg13g2_fill_1
XFILLER_16_175 VPWR VGND sg13g2_decap_8
XFILLER_31_112 VPWR VGND sg13g2_decap_4
XFILLER_9_853 VPWR VGND sg13g2_decap_8
XFILLER_8_374 VPWR VGND sg13g2_fill_2
X_4410_ VGND VPWR net707 net566 _1362_ _1361_ sg13g2_a21oi_1
X_5390_ net272 VGND VPWR _0149_ ppwm_i.u_ppwm.u_mem.memory\[49\] clknet_leaf_24_clk
+ sg13g2_dfrbpq_1
X_4341_ _1294_ _2296_ _1292_ VPWR VGND sg13g2_nand2b_1
X_4272_ net760 net730 _1225_ VPWR VGND sg13g2_xor2_1
X_3223_ net942 ppwm_i.u_ppwm.global_counter\[0\] ppwm_i.u_ppwm.period_start _0425_
+ VPWR VGND sg13g2_nand3_1
XFILLER_39_267 VPWR VGND sg13g2_decap_8
XFILLER_11_0 VPWR VGND sg13g2_fill_1
X_3154_ net821 VPWR _0381_ VGND net912 _0380_ sg13g2_o21ai_1
XFILLER_39_278 VPWR VGND sg13g2_fill_1
X_5476__333 VPWR VGND net333 sg13g2_tiehi
X_3085_ net820 VPWR _2436_ VGND net1069 _2435_ sg13g2_o21ai_1
XFILLER_36_941 VPWR VGND sg13g2_decap_8
XFILLER_35_473 VPWR VGND sg13g2_decap_4
X_3987_ net808 VPWR _1023_ VGND net378 net680 sg13g2_o21ai_1
XFILLER_22_178 VPWR VGND sg13g2_fill_2
X_2938_ _2292_ net428 VPWR VGND sg13g2_inv_2
XFILLER_11_1021 VPWR VGND sg13g2_decap_8
X_2869_ VPWR _2223_ net447 VGND sg13g2_inv_1
X_4608_ _1554_ _1555_ _1556_ _1557_ VPWR VGND sg13g2_or3_1
XFILLER_2_528 VPWR VGND sg13g2_decap_4
X_4539_ _1489_ _1429_ _1487_ _1488_ VPWR VGND sg13g2_and3_1
Xhold341 _0231_ VPWR VGND net993 sg13g2_dlygate4sd3_1
Xhold330 _0000_ VPWR VGND net982 sg13g2_dlygate4sd3_1
Xhold352 _0047_ VPWR VGND net1004 sg13g2_dlygate4sd3_1
Xhold385 falu_i.falutop.div_inst.val\[6\] VPWR VGND net1037 sg13g2_dlygate4sd3_1
Xhold396 _0297_ VPWR VGND net1048 sg13g2_dlygate4sd3_1
Xhold363 falu_i.falutop.i2c_inst.state\[0\] VPWR VGND net1015 sg13g2_dlygate4sd3_1
Xhold374 falu_i.falutop.i2c_inst.op\[1\] VPWR VGND net1026 sg13g2_dlygate4sd3_1
Xfanout821 net822 net821 VPWR VGND sg13g2_buf_8
Xfanout832 net833 net832 VPWR VGND sg13g2_buf_2
Xfanout810 net811 net810 VPWR VGND sg13g2_buf_8
XFILLER_19_919 VPWR VGND sg13g2_decap_8
XFILLER_45_204 VPWR VGND sg13g2_fill_2
XFILLER_26_440 VPWR VGND sg13g2_fill_1
XFILLER_27_952 VPWR VGND sg13g2_decap_8
Xclkbuf_3_6__f_clk clknet_0_clk clknet_3_6__leaf_clk VPWR VGND sg13g2_buf_8
XFILLER_42_966 VPWR VGND sg13g2_decap_8
XFILLER_13_112 VPWR VGND sg13g2_fill_2
XFILLER_41_498 VPWR VGND sg13g2_decap_4
XFILLER_42_85 VPWR VGND sg13g2_fill_1
XFILLER_10_852 VPWR VGND sg13g2_decap_8
XFILLER_6_878 VPWR VGND sg13g2_decap_8
XFILLER_5_355 VPWR VGND sg13g2_decap_8
XFILLER_3_1008 VPWR VGND sg13g2_decap_8
X_5278__140 VPWR VGND net140 sg13g2_tiehi
XFILLER_18_963 VPWR VGND sg13g2_decap_8
XFILLER_44_270 VPWR VGND sg13g2_fill_2
X_3910_ VGND VPWR _2182_ net678 _0174_ _0983_ sg13g2_a21oi_1
X_4890_ VGND VPWR _2301_ net564 _1835_ _1282_ sg13g2_a21oi_1
XFILLER_17_495 VPWR VGND sg13g2_fill_2
X_3841_ net825 VPWR _0949_ VGND ppwm_i.u_ppwm.u_mem.memory\[41\] net642 sg13g2_o21ai_1
XFILLER_20_605 VPWR VGND sg13g2_decap_8
XFILLER_33_988 VPWR VGND sg13g2_decap_8
XFILLER_32_498 VPWR VGND sg13g2_decap_4
X_3772_ VGND VPWR _2231_ net654 _0105_ _0914_ sg13g2_a21oi_1
X_5511_ net241 VGND VPWR net1038 falu_i.falutop.div_inst.val\[6\] clknet_leaf_40_clk
+ sg13g2_dfrbpq_2
X_5442_ net122 VGND VPWR _0201_ ppwm_i.u_ppwm.u_mem.memory\[101\] clknet_leaf_31_clk
+ sg13g2_dfrbpq_1
X_5373_ net306 VGND VPWR _0132_ ppwm_i.u_ppwm.u_mem.memory\[32\] clknet_leaf_23_clk
+ sg13g2_dfrbpq_1
X_4324_ _2297_ net747 _1275_ _1277_ VPWR VGND sg13g2_nor3_1
X_4255_ _1211_ net931 net607 VPWR VGND sg13g2_nand2_1
X_3206_ net1066 _0412_ _0414_ VPWR VGND sg13g2_nor2_1
XFILLER_41_1025 VPWR VGND sg13g2_decap_4
X_4186_ VGND VPWR net634 _1159_ _0273_ _1160_ sg13g2_a21oi_1
X_3137_ _0369_ net1006 _0359_ VPWR VGND sg13g2_nand2_2
XFILLER_24_900 VPWR VGND sg13g2_decap_8
X_3068_ _2422_ net419 net821 VPWR VGND sg13g2_nand2_2
XFILLER_11_605 VPWR VGND sg13g2_fill_1
XFILLER_24_977 VPWR VGND sg13g2_decap_8
XFILLER_10_159 VPWR VGND sg13g2_fill_2
XFILLER_12_11 VPWR VGND sg13g2_decap_8
XFILLER_3_826 VPWR VGND sg13g2_decap_8
Xhold160 ppwm_i.u_ppwm.u_mem.memory\[96\] VPWR VGND net532 sg13g2_dlygate4sd3_1
Xhold171 _0271_ VPWR VGND net543 sg13g2_dlygate4sd3_1
Xhold182 _0438_ VPWR VGND net554 sg13g2_dlygate4sd3_1
Xhold193 ppwm_i.u_ppwm.u_mem.memory\[29\] VPWR VGND net845 sg13g2_dlygate4sd3_1
Xfanout640 _1073_ net640 VPWR VGND sg13g2_buf_8
Xfanout651 net652 net651 VPWR VGND sg13g2_buf_8
Xfanout684 net687 net684 VPWR VGND sg13g2_buf_8
Xfanout673 net675 net673 VPWR VGND sg13g2_buf_8
Xfanout662 net663 net662 VPWR VGND sg13g2_buf_2
Xfanout695 _2311_ net695 VPWR VGND sg13g2_buf_8
XFILLER_42_774 VPWR VGND sg13g2_fill_2
XFILLER_15_966 VPWR VGND sg13g2_decap_8
XFILLER_18_1005 VPWR VGND sg13g2_decap_8
X_5390__272 VPWR VGND net272 sg13g2_tiehi
XFILLER_30_958 VPWR VGND sg13g2_decap_8
XFILLER_10_671 VPWR VGND sg13g2_decap_4
X_5326__49 VPWR VGND net49 sg13g2_tiehi
XFILLER_25_1009 VPWR VGND sg13g2_decap_8
XFILLER_49_351 VPWR VGND sg13g2_decap_8
XFILLER_49_340 VPWR VGND sg13g2_decap_8
X_4040_ VGND VPWR _1059_ _1063_ _0223_ _1064_ sg13g2_a21oi_1
XFILLER_37_502 VPWR VGND sg13g2_fill_2
XFILLER_37_546 VPWR VGND sg13g2_fill_2
XFILLER_18_771 VPWR VGND sg13g2_fill_1
X_4942_ falu_i.falutop.div_inst.rem\[1\] falu_i.falutop.div_inst.rem\[0\] net775 _1886_
+ VPWR VGND sg13g2_nand3_1
XFILLER_21_903 VPWR VGND sg13g2_decap_8
XFILLER_33_763 VPWR VGND sg13g2_fill_1
X_4873_ _1807_ VPWR _1818_ VGND _1814_ _1816_ sg13g2_o21ai_1
XFILLER_33_785 VPWR VGND sg13g2_fill_1
XFILLER_33_796 VPWR VGND sg13g2_fill_2
X_3824_ VGND VPWR _2212_ net657 _0131_ _0940_ sg13g2_a21oi_1
XFILLER_20_479 VPWR VGND sg13g2_decap_8
X_3755_ net807 net374 _0097_ VPWR VGND sg13g2_and2_1
X_3686_ _0848_ _2239_ net600 VPWR VGND sg13g2_xnor2_1
X_5425_ net192 VGND VPWR _0184_ ppwm_i.u_ppwm.u_mem.memory\[84\] clknet_leaf_30_clk
+ sg13g2_dfrbpq_1
X_5356_ net340 VGND VPWR _0115_ ppwm_i.u_ppwm.u_mem.memory\[15\] clknet_leaf_34_clk
+ sg13g2_dfrbpq_1
X_4307_ _1260_ falu_i.falutop.alu_inst.op\[1\] net877 VPWR VGND sg13g2_nand2_2
X_5287_ net123 VGND VPWR net1109 ppwm_i.u_ppwm.global_counter\[4\] clknet_leaf_12_clk
+ sg13g2_dfrbpq_2
X_4238_ VGND VPWR net780 net465 _1201_ _1200_ sg13g2_a21oi_1
XFILLER_28_524 VPWR VGND sg13g2_fill_2
X_4169_ VGND VPWR _2150_ net636 _0267_ _1149_ sg13g2_a21oi_1
XFILLER_24_774 VPWR VGND sg13g2_decap_8
XFILLER_12_958 VPWR VGND sg13g2_decap_8
XFILLER_23_43 VPWR VGND sg13g2_fill_1
XFILLER_7_439 VPWR VGND sg13g2_decap_8
XFILLER_3_667 VPWR VGND sg13g2_decap_8
XFILLER_47_811 VPWR VGND sg13g2_fill_1
XFILLER_0_14 VPWR VGND sg13g2_decap_8
XFILLER_15_752 VPWR VGND sg13g2_decap_4
XFILLER_31_1024 VPWR VGND sg13g2_decap_4
X_3540_ _0710_ _0709_ _0712_ VPWR VGND sg13g2_nor2b_2
XFILLER_7_951 VPWR VGND sg13g2_decap_8
XFILLER_10_490 VPWR VGND sg13g2_decap_8
X_3471_ _0646_ ppwm_i.u_ppwm.u_ex.reg_value_q\[5\] net596 VPWR VGND sg13g2_nand2_1
X_5210_ _2124_ falu_i.falutop.data_in\[5\] _2122_ VPWR VGND sg13g2_xnor2_1
X_5247__201 VPWR VGND net201 sg13g2_tiehi
X_5141_ _2078_ VPWR _2079_ VGND _2023_ _2027_ sg13g2_o21ai_1
XFILLER_9_1014 VPWR VGND sg13g2_decap_8
X_5072_ _2010_ _2012_ _1834_ _2013_ VPWR VGND sg13g2_nand3_1
XFILLER_38_811 VPWR VGND sg13g2_fill_2
X_4023_ net1 _1049_ _1050_ VPWR VGND sg13g2_and2_1
X_4925_ VGND VPWR _1865_ _1866_ _1869_ _1852_ sg13g2_a21oi_1
X_4856_ _1801_ net733 net751 VPWR VGND sg13g2_nand2_1
XFILLER_21_755 VPWR VGND sg13g2_fill_1
XFILLER_21_766 VPWR VGND sg13g2_fill_2
X_3807_ net828 VPWR _0932_ VGND ppwm_i.u_ppwm.u_mem.memory\[23\] net661 sg13g2_o21ai_1
X_5369__314 VPWR VGND net314 sg13g2_tiehi
X_5549__259 VPWR VGND net259 sg13g2_tiehi
X_4787_ _1733_ _1240_ _1324_ VPWR VGND sg13g2_nand2_1
XFILLER_20_276 VPWR VGND sg13g2_fill_2
X_3738_ _0887_ _0894_ _0885_ _0895_ VPWR VGND sg13g2_nand3_1
X_3669_ _0824_ _0831_ _0822_ _0833_ VPWR VGND sg13g2_nand3_1
X_5408_ net236 VGND VPWR _0167_ ppwm_i.u_ppwm.u_mem.memory\[67\] clknet_leaf_27_clk
+ sg13g2_dfrbpq_1
XFILLER_0_604 VPWR VGND sg13g2_decap_8
XFILLER_0_626 VPWR VGND sg13g2_decap_8
X_5339_ net372 VGND VPWR _0098_ ppwm_i.u_ppwm.u_mem.clk_prog_sync3 clknet_leaf_11_clk
+ sg13g2_dfrbpq_1
XFILLER_28_365 VPWR VGND sg13g2_decap_8
XFILLER_43_302 VPWR VGND sg13g2_decap_8
XFILLER_43_346 VPWR VGND sg13g2_decap_4
XFILLER_34_20 VPWR VGND sg13g2_decap_8
X_5491__299 VPWR VGND net299 sg13g2_tiehi
XFILLER_15_1008 VPWR VGND sg13g2_decap_8
XFILLER_4_943 VPWR VGND sg13g2_decap_8
XFILLER_22_508 VPWR VGND sg13g2_fill_1
X_2971_ _2325_ net693 _2205_ net701 _2200_ VPWR VGND sg13g2_a22oi_1
X_4710_ _1657_ _1656_ _1651_ VPWR VGND sg13g2_nand2b_1
XFILLER_15_593 VPWR VGND sg13g2_fill_1
X_4641_ _1259_ _1304_ _1589_ VPWR VGND sg13g2_nor2_1
X_4572_ _1522_ falu_i.falutop.div_inst.val\[2\] _1404_ VPWR VGND sg13g2_nand2_1
X_3523_ _0696_ _0651_ net602 _0631_ net611 VPWR VGND sg13g2_a22oi_1
X_3454_ VGND VPWR _2242_ net598 _0630_ _0629_ sg13g2_a21oi_1
XFILLER_41_0 VPWR VGND sg13g2_decap_8
X_3385_ _2235_ ppwm_i.u_ppwm.global_counter\[9\] _0563_ VPWR VGND sg13g2_nor2_1
X_5124_ _2061_ _2054_ _2063_ VPWR VGND sg13g2_xor2_1
X_5055_ _1992_ _1995_ _1996_ VPWR VGND sg13g2_nor2b_1
X_4006_ VGND VPWR _1034_ net1011 _0216_ _1037_ sg13g2_a21oi_1
XFILLER_26_825 VPWR VGND sg13g2_fill_1
XFILLER_41_806 VPWR VGND sg13g2_fill_2
X_4908_ _1815_ VPWR _1852_ VGND _1807_ _1816_ sg13g2_o21ai_1
X_4839_ net818 VPWR _1785_ VGND net1041 net628 sg13g2_o21ai_1
XFILLER_20_11 VPWR VGND sg13g2_fill_2
XFILLER_1_924 VPWR VGND sg13g2_decap_8
Xhold20 ppwm_i.u_ppwm.u_mem.memory\[103\] VPWR VGND net392 sg13g2_dlygate4sd3_1
Xhold31 _0123_ VPWR VGND net403 sg13g2_dlygate4sd3_1
Xhold53 _0137_ VPWR VGND net425 sg13g2_dlygate4sd3_1
Xhold64 _0282_ VPWR VGND net436 sg13g2_dlygate4sd3_1
Xhold42 _0330_ VPWR VGND net414 sg13g2_dlygate4sd3_1
XFILLER_21_1001 VPWR VGND sg13g2_decap_8
Xhold97 ppwm_i.u_ppwm.u_mem.memory\[54\] VPWR VGND net469 sg13g2_dlygate4sd3_1
Xhold86 _0027_ VPWR VGND net458 sg13g2_dlygate4sd3_1
Xhold75 ppwm_i.u_ppwm.u_mem.memory\[17\] VPWR VGND net447 sg13g2_dlygate4sd3_1
XFILLER_45_30 VPWR VGND sg13g2_fill_2
XFILLER_43_132 VPWR VGND sg13g2_fill_1
XFILLER_17_869 VPWR VGND sg13g2_decap_8
XFILLER_45_96 VPWR VGND sg13g2_decap_4
XFILLER_44_677 VPWR VGND sg13g2_decap_8
XFILLER_43_176 VPWR VGND sg13g2_decap_8
XFILLER_8_545 VPWR VGND sg13g2_fill_2
XFILLER_12_574 VPWR VGND sg13g2_fill_2
XFILLER_4_751 VPWR VGND sg13g2_fill_2
XFILLER_4_784 VPWR VGND sg13g2_decap_8
X_3170_ VGND VPWR _2285_ net683 _0027_ _0390_ sg13g2_a21oi_1
XFILLER_47_460 VPWR VGND sg13g2_fill_2
XFILLER_35_633 VPWR VGND sg13g2_fill_1
XFILLER_23_828 VPWR VGND sg13g2_decap_8
XFILLER_35_677 VPWR VGND sg13g2_fill_2
X_2954_ net788 net700 net786 _2308_ VPWR VGND sg13g2_nand3_1
X_2885_ _2239_ net1183 VPWR VGND sg13g2_inv_2
XFILLER_31_883 VPWR VGND sg13g2_fill_2
X_4624_ _1374_ _1571_ _1572_ _1573_ VPWR VGND sg13g2_nor3_1
Xhold501 falu_i.falutop.data_in\[5\] VPWR VGND net1153 sg13g2_dlygate4sd3_1
X_4555_ _1269_ _1504_ _1505_ VPWR VGND sg13g2_and2_1
Xhold512 _0066_ VPWR VGND net1164 sg13g2_dlygate4sd3_1
Xhold523 _0087_ VPWR VGND net1175 sg13g2_dlygate4sd3_1
Xhold534 ppwm_i.u_ppwm.u_mem.bit_count\[3\] VPWR VGND net1186 sg13g2_dlygate4sd3_1
Xhold545 _0073_ VPWR VGND net1197 sg13g2_dlygate4sd3_1
X_3506_ net586 _0637_ _0680_ VPWR VGND sg13g2_nor2_1
X_4486_ _1434_ _1436_ _1437_ VPWR VGND sg13g2_nor2_1
X_3437_ _0613_ _0612_ net598 VPWR VGND sg13g2_nand2b_1
X_3368_ _0545_ VPWR _0546_ VGND ppwm_i.u_ppwm.pwm_value\[8\] _2267_ sg13g2_o21ai_1
X_5107_ _2014_ net773 falu_i.falutop.div_inst.rem\[5\] _2047_ VPWR VGND sg13g2_a21o_1
XFILLER_46_909 VPWR VGND sg13g2_decap_8
X_3299_ _0480_ VPWR _0481_ VGND _2253_ _0477_ sg13g2_o21ai_1
XFILLER_39_994 VPWR VGND sg13g2_decap_8
X_5038_ _1979_ _1978_ _1879_ VPWR VGND sg13g2_nand2b_1
XFILLER_25_121 VPWR VGND sg13g2_fill_1
XFILLER_41_625 VPWR VGND sg13g2_decap_8
XFILLER_41_614 VPWR VGND sg13g2_decap_8
XFILLER_14_817 VPWR VGND sg13g2_decap_8
XFILLER_41_658 VPWR VGND sg13g2_decap_4
XFILLER_40_113 VPWR VGND sg13g2_fill_2
XFILLER_22_894 VPWR VGND sg13g2_decap_8
XFILLER_5_526 VPWR VGND sg13g2_fill_2
XFILLER_5_548 VPWR VGND sg13g2_decap_4
XFILLER_49_725 VPWR VGND sg13g2_fill_2
XFILLER_0_297 VPWR VGND sg13g2_fill_1
XFILLER_1_798 VPWR VGND sg13g2_decap_8
XFILLER_29_482 VPWR VGND sg13g2_decap_8
XFILLER_45_964 VPWR VGND sg13g2_decap_8
XFILLER_17_655 VPWR VGND sg13g2_fill_2
XFILLER_17_688 VPWR VGND sg13g2_decap_8
XFILLER_17_699 VPWR VGND sg13g2_fill_1
XFILLER_16_187 VPWR VGND sg13g2_decap_4
XFILLER_31_146 VPWR VGND sg13g2_fill_1
XFILLER_13_894 VPWR VGND sg13g2_decap_8
X_4340_ _2296_ net716 _1293_ VPWR VGND sg13g2_nor2_1
XFILLER_4_592 VPWR VGND sg13g2_fill_1
X_4271_ net732 net757 _1224_ VPWR VGND sg13g2_and2_1
X_3222_ VGND VPWR ppwm_i.u_ppwm.period_start ppwm_i.u_ppwm.global_counter\[0\] _0424_
+ net942 sg13g2_a21oi_1
X_3153_ _2431_ _2446_ _0380_ VPWR VGND sg13g2_nor2_1
X_3084_ _2431_ _2434_ _2435_ VPWR VGND sg13g2_nor2_1
XFILLER_23_603 VPWR VGND sg13g2_fill_1
XFILLER_36_997 VPWR VGND sg13g2_decap_8
XFILLER_23_625 VPWR VGND sg13g2_fill_1
XFILLER_23_658 VPWR VGND sg13g2_decap_8
X_3986_ _1022_ net652 _1021_ VPWR VGND sg13g2_nand2_1
X_5255__185 VPWR VGND net185 sg13g2_tiehi
X_2937_ _2291_ net420 VPWR VGND sg13g2_inv_2
XFILLER_11_1000 VPWR VGND sg13g2_decap_8
X_4607_ _1556_ net756 net741 net762 net737 VPWR VGND sg13g2_a22oi_1